Circuit: * C:\Users\glenn\OneDrive\Bureau\Dossier Glen\Projet Microcontroleur\Buck converter.asc

Warning: Multiple definitions of model "2scr375p" Type: BJT
Warning: Multiple definitions of model "bc857b" Type: BJT
Warning: Multiple definitions of model "bc847c" Type: BJT
Warning: Multiple definitions of model "bc847b" Type: BJT
Direct Newton iteration for .op point succeeded.

Date: Thu May 25 12:27:34 2023
Total elapsed time: 0.138 seconds.

tnom = 27
temp = 27
method = modified trap
totiter = 17521
traniter = 17514
tranpoints = 6287
accept = 4929
rejected = 1358
matrix size = 8
fillins = 0
solver = Normal
Avg thread counts: 1.1/1.2/1.2/1.1
Matrix Compiler1: off  [0.1]/0.2/0.2
Matrix Compiler2: off  [0.1]/0.2/0.1

