Circuit: * C:\Users\glenn\OneDrive\Bureau\Dossier Glen\Projet Microcontroleur\Draft1.asc

Warning: Multiple definitions of model "2scr375p" Type: BJT
Warning: Multiple definitions of model "bc857b" Type: BJT
Warning: Multiple definitions of model "bc847c" Type: BJT
Warning: Multiple definitions of model "bc847b" Type: BJT
Direct Newton iteration for .op point succeeded.

Date: Thu May 25 10:59:55 2023
Total elapsed time: 19.021 seconds.

tnom = 27
temp = 27
method = modified trap
totiter = 2001037
traniter = 2001032
tranpoints = 1000425
accept = 1000362
rejected = 63
matrix size = 7
fillins = 0
solver = Normal
Avg thread counts: 1.0/1.0/1.0/1.0
Matrix Compiler1: 232 bytes object code size  0.2/0.2/[0.2]
Matrix Compiler2: 487 bytes object code size  0.2/0.2/[0.1]

