Circuit: * C:\Users\glenn\OneDrive\Bureau\Dossier Glen\Projet Microcontroleur\NMOS.asc

.OP point found by inspection.
.step v2=0
.step v2=0.5
.step v2=1
.step v2=1.5
.step v2=2
.step v2=2.5
.step v2=3
.step v2=3.5
.step v2=4
.step v2=4.5
.step v2=5

Date: Tue May 23 11:04:29 2023
Total elapsed time: 0.963 seconds.

tnom = 27
temp = 27
method = trap
totiter = 440034
traniter = 0
tranpoints = 0
accept = 0
rejected = 0
matrix size = 4
fillins = 0
solver = Normal
Matrix Compiler1: 118 bytes object code size  0.1/0.0/[0.0]
Matrix Compiler2: 216 bytes object code size  0.1/0.1/[0.0]

