Circuit: * C:\Users\glenn\OneDrive\Bureau\Dossier Glen\Projet Microcontroleur\PMOS.asc

.OP point found by inspection.
.step vgs=0
.step vgs=-0.5
.step vgs=-1
.step vgs=-1.5
.step vgs=-2
.step vgs=-2.5
.step vgs=-3
.step vgs=-3.5
.step vgs=-4
.step vgs=-4.5
.step vgs=-5
.step vgs=-5.5
.step vgs=-6
.step vgs=-6.5
.step vgs=-7
.step vgs=-7.5
.step vgs=-8
.step vgs=-8.5
.step vgs=-9
.step vgs=-9.5
.step vgs=-10

Date: Tue May 23 11:05:43 2023
Total elapsed time: 0.090 seconds.

tnom = 27
temp = 27
method = trap
totiter = 524
traniter = 0
tranpoints = 0
accept = 0
rejected = 0
matrix size = 4
fillins = 0
solver = Normal
Matrix Compiler1: 118 bytes object code size  0.2/0.1/[0.1]
Matrix Compiler2: 216 bytes object code size  0.1/0.1/[0.0]

